<?xml version="1.0" ?>
<template encoding-version="1.1">
  <description></description>
  <groupId>09784f53-0160-1000-8b3a-1813ad757bb9</groupId>
  <name>NiFi Pi Flow</name>
  <snippet>
    <connections>
      <id>8a195409-3622-3695-0000-000000000000</id>
      <parentGroupId>f40bfddc-00b5-3970-0000-000000000000</parentGroupId>
      <backPressureDataSizeThreshold>1 GB</backPressureDataSizeThreshold>
      <backPressureObjectThreshold>10000</backPressureObjectThreshold>
      <destination>
        <groupId>f40bfddc-00b5-3970-0000-000000000000</groupId>
        <id>c7e61fa6-7321-3928-0000-000000000000</id>
        <type>PROCESSOR</type>
      </destination>
      <flowFileExpiration>0 sec</flowFileExpiration>
      <labelIndex>1</labelIndex>
      <name></name>
      <selectedRelationships>success</selectedRelationships>
      <source>
        <groupId>f40bfddc-00b5-3970-0000-000000000000</groupId>
        <id>81e77f37-b034-3b83-0000-000000000000</id>
        <type>PROCESSOR</type>
      </source>
      <zIndex>0</zIndex>
    </connections>
    <connections>
      <id>958d7053-a2bf-335f-0000-000000000000</id>
      <parentGroupId>f40bfddc-00b5-3970-0000-000000000000</parentGroupId>
      <backPressureDataSizeThreshold>1 GB</backPressureDataSizeThreshold>
      <backPressureObjectThreshold>10000</backPressureObjectThreshold>
      <destination>
        <groupId>f40bfddc-00b5-3970-0000-000000000000</groupId>
        <id>2e3843b2-2057-3f56-0000-000000000000</id>
        <type>PROCESSOR</type>
      </destination>
      <flowFileExpiration>0 sec</flowFileExpiration>
      <labelIndex>1</labelIndex>
      <name></name>
      <selectedRelationships>failure</selectedRelationships>
      <selectedRelationships>success</selectedRelationships>
      <source>
        <groupId>f40bfddc-00b5-3970-0000-000000000000</groupId>
        <id>dad09958-1418-3742-0000-000000000000</id>
        <type>PROCESSOR</type>
      </source>
      <zIndex>0</zIndex>
    </connections>
    <connections>
      <id>a39ae197-7143-39ee-0000-000000000000</id>
      <parentGroupId>f40bfddc-00b5-3970-0000-000000000000</parentGroupId>
      <backPressureDataSizeThreshold>1 GB</backPressureDataSizeThreshold>
      <backPressureObjectThreshold>10000</backPressureObjectThreshold>
      <destination>
        <groupId>f40bfddc-00b5-3970-0000-000000000000</groupId>
        <id>abe94b76-e15f-3ccb-0000-000000000000</id>
        <type>PROCESSOR</type>
      </destination>
      <flowFileExpiration>0 sec</flowFileExpiration>
      <labelIndex>1</labelIndex>
      <name></name>
      <selectedRelationships>success</selectedRelationships>
      <source>
        <groupId>f40bfddc-00b5-3970-0000-000000000000</groupId>
        <id>d3d729a1-fcf9-39fa-0000-000000000000</id>
        <type>PROCESSOR</type>
      </source>
      <zIndex>0</zIndex>
    </connections>
    <connections>
      <id>a407dc21-19f2-3fd3-0000-000000000000</id>
      <parentGroupId>f40bfddc-00b5-3970-0000-000000000000</parentGroupId>
      <backPressureDataSizeThreshold>1 GB</backPressureDataSizeThreshold>
      <backPressureObjectThreshold>10000</backPressureObjectThreshold>
      <destination>
        <groupId>f40bfddc-00b5-3970-0000-000000000000</groupId>
        <id>30ceaf57-6068-3250-0000-000000000000</id>
        <type>PROCESSOR</type>
      </destination>
      <flowFileExpiration>0 sec</flowFileExpiration>
      <labelIndex>1</labelIndex>
      <name></name>
      <selectedRelationships>success</selectedRelationships>
      <source>
        <groupId>f40bfddc-00b5-3970-0000-000000000000</groupId>
        <id>67b959cb-4511-38ee-0000-000000000000</id>
        <type>PROCESSOR</type>
      </source>
      <zIndex>0</zIndex>
    </connections>
    <connections>
      <id>a4dd42dc-b72d-3465-0000-000000000000</id>
      <parentGroupId>f40bfddc-00b5-3970-0000-000000000000</parentGroupId>
      <backPressureDataSizeThreshold>1 GB</backPressureDataSizeThreshold>
      <backPressureObjectThreshold>10000</backPressureObjectThreshold>
      <destination>
        <groupId>f40bfddc-00b5-3970-0000-000000000000</groupId>
        <id>2e3843b2-2057-3f56-0000-000000000000</id>
        <type>PROCESSOR</type>
      </destination>
      <flowFileExpiration>0 sec</flowFileExpiration>
      <labelIndex>1</labelIndex>
      <name></name>
      <selectedRelationships>unmatched</selectedRelationships>
      <source>
        <groupId>f40bfddc-00b5-3970-0000-000000000000</groupId>
        <id>76225843-ec18-35e0-0000-000000000000</id>
        <type>PROCESSOR</type>
      </source>
      <zIndex>0</zIndex>
    </connections>
    <connections>
      <id>e710d8c1-8755-3078-0000-000000000000</id>
      <parentGroupId>f40bfddc-00b5-3970-0000-000000000000</parentGroupId>
      <backPressureDataSizeThreshold>1 GB</backPressureDataSizeThreshold>
      <backPressureObjectThreshold>10000</backPressureObjectThreshold>
      <destination>
        <groupId>f40bfddc-00b5-3970-0000-000000000000</groupId>
        <id>07b12898-0821-38d4-0000-000000000000</id>
        <type>PROCESSOR</type>
      </destination>
      <flowFileExpiration>0 sec</flowFileExpiration>
      <labelIndex>1</labelIndex>
      <name></name>
      <selectedRelationships>success</selectedRelationships>
      <source>
        <groupId>f40bfddc-00b5-3970-0000-000000000000</groupId>
        <id>6d6a9f1b-c11d-395b-0000-000000000000</id>
        <type>PROCESSOR</type>
      </source>
      <zIndex>0</zIndex>
    </connections>
    <connections>
      <id>f6b8b8b1-ddb5-33d3-0000-000000000000</id>
      <parentGroupId>f40bfddc-00b5-3970-0000-000000000000</parentGroupId>
      <backPressureDataSizeThreshold>1 GB</backPressureDataSizeThreshold>
      <backPressureObjectThreshold>10000</backPressureObjectThreshold>
      <destination>
        <groupId>f40bfddc-00b5-3970-0000-000000000000</groupId>
        <id>a260548e-10c0-3397-0000-000000000000</id>
        <type>PROCESSOR</type>
      </destination>
      <flowFileExpiration>0 sec</flowFileExpiration>
      <labelIndex>1</labelIndex>
      <name></name>
      <selectedRelationships>success</selectedRelationships>
      <source>
        <groupId>f40bfddc-00b5-3970-0000-000000000000</groupId>
        <id>67b959cb-4511-38ee-0000-000000000000</id>
        <type>PROCESSOR</type>
      </source>
      <zIndex>0</zIndex>
    </connections>
    <connections>
      <id>f84b817c-f82f-337d-0000-000000000000</id>
      <parentGroupId>f40bfddc-00b5-3970-0000-000000000000</parentGroupId>
      <backPressureDataSizeThreshold>1 GB</backPressureDataSizeThreshold>
      <backPressureObjectThreshold>10000</backPressureObjectThreshold>
      <destination>
        <groupId>f40bfddc-00b5-3970-0000-000000000000</groupId>
        <id>2e3843b2-2057-3f56-0000-000000000000</id>
        <type>PROCESSOR</type>
      </destination>
      <flowFileExpiration>0 sec</flowFileExpiration>
      <labelIndex>1</labelIndex>
      <name></name>
      <selectedRelationships>unmatched</selectedRelationships>
      <source>
        <groupId>f40bfddc-00b5-3970-0000-000000000000</groupId>
        <id>a260548e-10c0-3397-0000-000000000000</id>
        <type>PROCESSOR</type>
      </source>
      <zIndex>0</zIndex>
    </connections>
    <connections>
      <id>feeaa23d-d2f2-3a88-0000-000000000000</id>
      <parentGroupId>f40bfddc-00b5-3970-0000-000000000000</parentGroupId>
      <backPressureDataSizeThreshold>1 GB</backPressureDataSizeThreshold>
      <backPressureObjectThreshold>10000</backPressureObjectThreshold>
      <destination>
        <groupId>f40bfddc-00b5-3970-0000-000000000000</groupId>
        <id>76225843-ec18-35e0-0000-000000000000</id>
        <type>PROCESSOR</type>
      </destination>
      <flowFileExpiration>0 sec</flowFileExpiration>
      <labelIndex>1</labelIndex>
      <name></name>
      <selectedRelationships>success</selectedRelationships>
      <source>
        <groupId>f40bfddc-00b5-3970-0000-000000000000</groupId>
        <id>c7e61fa6-7321-3928-0000-000000000000</id>
        <type>PROCESSOR</type>
      </source>
      <zIndex>0</zIndex>
    </connections>
    <connections>
      <id>071cd648-ffa2-3dac-0000-000000000000</id>
      <parentGroupId>f40bfddc-00b5-3970-0000-000000000000</parentGroupId>
      <backPressureDataSizeThreshold>1 GB</backPressureDataSizeThreshold>
      <backPressureObjectThreshold>10000</backPressureObjectThreshold>
      <destination>
        <groupId>f40bfddc-00b5-3970-0000-000000000000</groupId>
        <id>dad09958-1418-3742-0000-000000000000</id>
        <type>PROCESSOR</type>
      </destination>
      <flowFileExpiration>0 sec</flowFileExpiration>
      <labelIndex>1</labelIndex>
      <name></name>
      <selectedRelationships>matched</selectedRelationships>
      <source>
        <groupId>f40bfddc-00b5-3970-0000-000000000000</groupId>
        <id>76225843-ec18-35e0-0000-000000000000</id>
        <type>PROCESSOR</type>
      </source>
      <zIndex>0</zIndex>
    </connections>
    <connections>
      <id>15b097df-6245-39bb-0000-000000000000</id>
      <parentGroupId>f40bfddc-00b5-3970-0000-000000000000</parentGroupId>
      <backPressureDataSizeThreshold>1 GB</backPressureDataSizeThreshold>
      <backPressureObjectThreshold>10000</backPressureObjectThreshold>
      <destination>
        <groupId>f40bfddc-00b5-3970-0000-000000000000</groupId>
        <id>968a201e-3f31-3b25-0000-000000000000</id>
        <type>PROCESSOR</type>
      </destination>
      <flowFileExpiration>0 sec</flowFileExpiration>
      <labelIndex>1</labelIndex>
      <name></name>
      <selectedRelationships>success</selectedRelationships>
      <source>
        <groupId>f40bfddc-00b5-3970-0000-000000000000</groupId>
        <id>d0d23660-d9ad-3665-0000-000000000000</id>
        <type>PROCESSOR</type>
      </source>
      <zIndex>0</zIndex>
    </connections>
    <connections>
      <id>190813cb-dfee-3157-0000-000000000000</id>
      <parentGroupId>f40bfddc-00b5-3970-0000-000000000000</parentGroupId>
      <backPressureDataSizeThreshold>1 GB</backPressureDataSizeThreshold>
      <backPressureObjectThreshold>10000</backPressureObjectThreshold>
      <destination>
        <groupId>f40bfddc-00b5-3970-0000-000000000000</groupId>
        <id>cbda98cf-3371-32af-0000-000000000000</id>
        <type>PROCESSOR</type>
      </destination>
      <flowFileExpiration>0 sec</flowFileExpiration>
      <labelIndex>1</labelIndex>
      <name></name>
      <selectedRelationships>success</selectedRelationships>
      <source>
        <groupId>f40bfddc-00b5-3970-0000-000000000000</groupId>
        <id>d3d729a1-fcf9-39fa-0000-000000000000</id>
        <type>PROCESSOR</type>
      </source>
      <zIndex>0</zIndex>
    </connections>
    <connections>
      <id>207f1835-e944-3628-0000-000000000000</id>
      <parentGroupId>f40bfddc-00b5-3970-0000-000000000000</parentGroupId>
      <backPressureDataSizeThreshold>1 GB</backPressureDataSizeThreshold>
      <backPressureObjectThreshold>10000</backPressureObjectThreshold>
      <destination>
        <groupId>f40bfddc-00b5-3970-0000-000000000000</groupId>
        <id>cbda98cf-3371-32af-0000-000000000000</id>
        <type>PROCESSOR</type>
      </destination>
      <flowFileExpiration>0 sec</flowFileExpiration>
      <labelIndex>1</labelIndex>
      <name></name>
      <selectedRelationships>success</selectedRelationships>
      <source>
        <groupId>f40bfddc-00b5-3970-0000-000000000000</groupId>
        <id>07b12898-0821-38d4-0000-000000000000</id>
        <type>PROCESSOR</type>
      </source>
      <zIndex>0</zIndex>
    </connections>
    <connections>
      <id>237cc975-63e2-3954-0000-000000000000</id>
      <parentGroupId>f40bfddc-00b5-3970-0000-000000000000</parentGroupId>
      <backPressureDataSizeThreshold>1 GB</backPressureDataSizeThreshold>
      <backPressureObjectThreshold>10000</backPressureObjectThreshold>
      <destination>
        <groupId>f40bfddc-00b5-3970-0000-000000000000</groupId>
        <id>d0d23660-d9ad-3665-0000-000000000000</id>
        <type>PROCESSOR</type>
      </destination>
      <flowFileExpiration>0 sec</flowFileExpiration>
      <labelIndex>1</labelIndex>
      <name></name>
      <selectedRelationships>Success</selectedRelationships>
      <source>
        <groupId>f40bfddc-00b5-3970-0000-000000000000</groupId>
        <id>b7fdcb2c-b1c3-335c-0000-000000000000</id>
        <type>PROCESSOR</type>
      </source>
      <zIndex>0</zIndex>
    </connections>
    <connections>
      <id>2dd25946-0d89-3ddd-0000-000000000000</id>
      <parentGroupId>f40bfddc-00b5-3970-0000-000000000000</parentGroupId>
      <backPressureDataSizeThreshold>1 GB</backPressureDataSizeThreshold>
      <backPressureObjectThreshold>10000</backPressureObjectThreshold>
      <destination>
        <groupId>f40bfddc-00b5-3970-0000-000000000000</groupId>
        <id>81e77f37-b034-3b83-0000-000000000000</id>
        <type>PROCESSOR</type>
      </destination>
      <flowFileExpiration>0 sec</flowFileExpiration>
      <labelIndex>1</labelIndex>
      <name></name>
      <selectedRelationships>success</selectedRelationships>
      <source>
        <groupId>f40bfddc-00b5-3970-0000-000000000000</groupId>
        <id>31cde19c-f71e-30e0-0000-000000000000</id>
        <type>PROCESSOR</type>
      </source>
      <zIndex>0</zIndex>
    </connections>
    <connections>
      <id>3c2bb799-3326-3d33-0000-000000000000</id>
      <parentGroupId>f40bfddc-00b5-3970-0000-000000000000</parentGroupId>
      <backPressureDataSizeThreshold>1 GB</backPressureDataSizeThreshold>
      <backPressureObjectThreshold>10000</backPressureObjectThreshold>
      <destination>
        <groupId>f40bfddc-00b5-3970-0000-000000000000</groupId>
        <id>67b959cb-4511-38ee-0000-000000000000</id>
        <type>PROCESSOR</type>
      </destination>
      <flowFileExpiration>0 sec</flowFileExpiration>
      <labelIndex>1</labelIndex>
      <name></name>
      <selectedRelationships>success</selectedRelationships>
      <source>
        <groupId>f40bfddc-00b5-3970-0000-000000000000</groupId>
        <id>81e77f37-b034-3b83-0000-000000000000</id>
        <type>PROCESSOR</type>
      </source>
      <zIndex>0</zIndex>
    </connections>
    <connections>
      <id>64ba9067-3134-3029-0000-000000000000</id>
      <parentGroupId>f40bfddc-00b5-3970-0000-000000000000</parentGroupId>
      <backPressureDataSizeThreshold>1 GB</backPressureDataSizeThreshold>
      <backPressureObjectThreshold>10000</backPressureObjectThreshold>
      <destination>
        <groupId>f40bfddc-00b5-3970-0000-000000000000</groupId>
        <id>5a0de576-715a-39f1-0000-000000000000</id>
        <type>PROCESSOR</type>
      </destination>
      <flowFileExpiration>0 sec</flowFileExpiration>
      <labelIndex>1</labelIndex>
      <name></name>
      <selectedRelationships>matched</selectedRelationships>
      <source>
        <groupId>f40bfddc-00b5-3970-0000-000000000000</groupId>
        <id>a260548e-10c0-3397-0000-000000000000</id>
        <type>PROCESSOR</type>
      </source>
      <zIndex>0</zIndex>
    </connections>
    <connections>
      <id>6910b374-1eed-32cf-0000-000000000000</id>
      <parentGroupId>f40bfddc-00b5-3970-0000-000000000000</parentGroupId>
      <backPressureDataSizeThreshold>1 GB</backPressureDataSizeThreshold>
      <backPressureObjectThreshold>10000</backPressureObjectThreshold>
      <destination>
        <groupId>f40bfddc-00b5-3970-0000-000000000000</groupId>
        <id>30ceaf57-6068-3250-0000-000000000000</id>
        <type>PROCESSOR</type>
      </destination>
      <flowFileExpiration>0 sec</flowFileExpiration>
      <labelIndex>1</labelIndex>
      <name></name>
      <selectedRelationships>success</selectedRelationships>
      <source>
        <groupId>f40bfddc-00b5-3970-0000-000000000000</groupId>
        <id>81e77f37-b034-3b83-0000-000000000000</id>
        <type>PROCESSOR</type>
      </source>
      <zIndex>0</zIndex>
    </connections>
    <connections>
      <id>7b7b2a72-21ce-3d02-0000-000000000000</id>
      <parentGroupId>f40bfddc-00b5-3970-0000-000000000000</parentGroupId>
      <backPressureDataSizeThreshold>1 GB</backPressureDataSizeThreshold>
      <backPressureObjectThreshold>10000</backPressureObjectThreshold>
      <destination>
        <groupId>f40bfddc-00b5-3970-0000-000000000000</groupId>
        <id>30ceaf57-6068-3250-0000-000000000000</id>
        <type>PROCESSOR</type>
      </destination>
      <flowFileExpiration>0 sec</flowFileExpiration>
      <labelIndex>1</labelIndex>
      <name></name>
      <selectedRelationships>success</selectedRelationships>
      <source>
        <groupId>f40bfddc-00b5-3970-0000-000000000000</groupId>
        <id>cbda98cf-3371-32af-0000-000000000000</id>
        <type>PROCESSOR</type>
      </source>
      <zIndex>0</zIndex>
    </connections>
    <connections>
      <id>7fe5efd7-b620-3bcc-0000-000000000000</id>
      <parentGroupId>f40bfddc-00b5-3970-0000-000000000000</parentGroupId>
      <backPressureDataSizeThreshold>1 GB</backPressureDataSizeThreshold>
      <backPressureObjectThreshold>10000</backPressureObjectThreshold>
      <destination>
        <groupId>f40bfddc-00b5-3970-0000-000000000000</groupId>
        <id>31cde19c-f71e-30e0-0000-000000000000</id>
        <type>PROCESSOR</type>
      </destination>
      <flowFileExpiration>0 sec</flowFileExpiration>
      <labelIndex>1</labelIndex>
      <name></name>
      <selectedRelationships>matched</selectedRelationships>
      <source>
        <groupId>f40bfddc-00b5-3970-0000-000000000000</groupId>
        <id>abe94b76-e15f-3ccb-0000-000000000000</id>
        <type>PROCESSOR</type>
      </source>
      <zIndex>0</zIndex>
    </connections>
    <controllerServices>
      <id>f9c5c246-2468-3b06-0000-000000000000</id>
      <parentGroupId>f40bfddc-00b5-3970-0000-000000000000</parentGroupId>
      <bundle>
        <artifact>nifi-ssl-context-service-nar</artifact>
        <group>org.apache.nifi</group>
        <version>1.4.0</version>
      </bundle>
      <comments></comments>
      <descriptors>
        <entry>
          <key>Keystore Filename</key>
          <value>
            <name>Keystore Filename</name>
          </value>
        </entry>
        <entry>
          <key>Keystore Password</key>
          <value>
            <name>Keystore Password</name>
          </value>
        </entry>
        <entry>
          <key>key-password</key>
          <value>
            <name>key-password</name>
          </value>
        </entry>
        <entry>
          <key>Keystore Type</key>
          <value>
            <name>Keystore Type</name>
          </value>
        </entry>
        <entry>
          <key>Truststore Filename</key>
          <value>
            <name>Truststore Filename</name>
          </value>
        </entry>
        <entry>
          <key>Truststore Password</key>
          <value>
            <name>Truststore Password</name>
          </value>
        </entry>
        <entry>
          <key>Truststore Type</key>
          <value>
            <name>Truststore Type</name>
          </value>
        </entry>
        <entry>
          <key>SSL Protocol</key>
          <value>
            <name>SSL Protocol</name>
          </value>
        </entry>
      </descriptors>
      <name>StandardRestrictedSSLContextService</name>
      <persistsState>false</persistsState>
      <properties>
        <entry>
          <key>Keystore Filename</key>
        </entry>
        <entry>
          <key>Keystore Password</key>
        </entry>
        <entry>
          <key>key-password</key>
        </entry>
        <entry>
          <key>Keystore Type</key>
        </entry>
        <entry>
          <key>Truststore Filename</key>
          <value>/home/nifi/westus.jks</value>
        </entry>
        <entry>
          <key>Truststore Password</key>
        </entry>
        <entry>
          <key>Truststore Type</key>
          <value>JKS</value>
        </entry>
        <entry>
          <key>SSL Protocol</key>
        </entry>
      </properties>
      <state>ENABLED</state>
      <type>org.apache.nifi.ssl.StandardRestrictedSSLContextService</type>
    </controllerServices>
    <controllerServices>
      <id>59ece57d-264c-3688-0000-000000000000</id>
      <parentGroupId>f40bfddc-00b5-3970-0000-000000000000</parentGroupId>
      <bundle>
        <artifact>nifi-dbcp-service-nar</artifact>
        <group>org.apache.nifi</group>
        <version>1.4.0</version>
      </bundle>
      <comments></comments>
      <descriptors>
        <entry>
          <key>Database Connection URL</key>
          <value>
            <name>Database Connection URL</name>
          </value>
        </entry>
        <entry>
          <key>Database Driver Class Name</key>
          <value>
            <name>Database Driver Class Name</name>
          </value>
        </entry>
        <entry>
          <key>database-driver-locations</key>
          <value>
            <name>database-driver-locations</name>
          </value>
        </entry>
        <entry>
          <key>Database User</key>
          <value>
            <name>Database User</name>
          </value>
        </entry>
        <entry>
          <key>Password</key>
          <value>
            <name>Password</name>
          </value>
        </entry>
        <entry>
          <key>Max Wait Time</key>
          <value>
            <name>Max Wait Time</name>
          </value>
        </entry>
        <entry>
          <key>Max Total Connections</key>
          <value>
            <name>Max Total Connections</name>
          </value>
        </entry>
        <entry>
          <key>Validation-query</key>
          <value>
            <name>Validation-query</name>
          </value>
        </entry>
      </descriptors>
      <name>DBCPConnectionPool</name>
      <persistsState>false</persistsState>
      <properties>
        <entry>
          <key>Database Connection URL</key>
          <value>jdbc:sqlserver://chaosmonkeys.database.windows.net:1433;databaseName=CompletionsProblem</value>
        </entry>
        <entry>
          <key>Database Driver Class Name</key>
          <value>com.microsoft.sqlserver.jdbc.SQLServerDriver</value>
        </entry>
        <entry>
          <key>database-driver-locations</key>
          <value>/home/nifi/sqljdbc42.jar</value>
        </entry>
        <entry>
          <key>Database User</key>
          <value>sqladmin</value>
        </entry>
        <entry>
          <key>Password</key>
        </entry>
        <entry>
          <key>Max Wait Time</key>
        </entry>
        <entry>
          <key>Max Total Connections</key>
        </entry>
        <entry>
          <key>Validation-query</key>
          <value>select wl.wellname, wl.location, p.* from dbo.wells wl INNER JOIN dbo.production p on wl.wellname = p.wellname</value>
        </entry>
      </properties>
      <state>ENABLED</state>
      <type>org.apache.nifi.dbcp.DBCPConnectionPool</type>
    </controllerServices>
    <processors>
      <id>81e77f37-b034-3b83-0000-000000000000</id>
      <parentGroupId>f40bfddc-00b5-3970-0000-000000000000</parentGroupId>
      <position>
        <x>656.4335144474489</x>
        <y>1148.648786512288</y>
      </position>
      <bundle>
        <artifact>nifi-avro-nar</artifact>
        <group>org.apache.nifi</group>
        <version>1.4.0</version>
      </bundle>
      <config>
        <bulletinLevel>WARN</bulletinLevel>
        <comments></comments>
        <concurrentlySchedulableTaskCount>1</concurrentlySchedulableTaskCount>
        <descriptors>
          <entry>
            <key>JSON container options</key>
            <value>
              <name>JSON container options</name>
            </value>
          </entry>
          <entry>
            <key>Wrap Single Record</key>
            <value>
              <name>Wrap Single Record</name>
            </value>
          </entry>
          <entry>
            <key>Avro schema</key>
            <value>
              <name>Avro schema</name>
            </value>
          </entry>
        </descriptors>
        <executionNode>ALL</executionNode>
        <lossTolerant>false</lossTolerant>
        <penaltyDuration>30 sec</penaltyDuration>
        <properties>
          <entry>
            <key>JSON container options</key>
            <value>array</value>
          </entry>
          <entry>
            <key>Wrap Single Record</key>
            <value>false</value>
          </entry>
          <entry>
            <key>Avro schema</key>
          </entry>
        </properties>
        <runDurationMillis>0</runDurationMillis>
        <schedulingPeriod>0 sec</schedulingPeriod>
        <schedulingStrategy>TIMER_DRIVEN</schedulingStrategy>
        <yieldDuration>1 sec</yieldDuration>
      </config>
      <name>ConvertAvroToJSON</name>
      <relationships>
        <autoTerminate>true</autoTerminate>
        <name>failure</name>
      </relationships>
      <relationships>
        <autoTerminate>false</autoTerminate>
        <name>success</name>
      </relationships>
      <state>RUNNING</state>
      <style></style>
      <type>org.apache.nifi.processors.avro.ConvertAvroToJSON</type>
    </processors>
    <processors>
      <id>968a201e-3f31-3b25-0000-000000000000</id>
      <parentGroupId>f40bfddc-00b5-3970-0000-000000000000</parentGroupId>
      <position>
        <x>39.034088134765625</x>
        <y>729.2746391296387</y>
      </position>
      <bundle>
        <artifact>nifi-azure-nar</artifact>
        <group>org.apache.nifi</group>
        <version>1.4.0</version>
      </bundle>
      <config>
        <bulletinLevel>WARN</bulletinLevel>
        <comments></comments>
        <concurrentlySchedulableTaskCount>1</concurrentlySchedulableTaskCount>
        <descriptors>
          <entry>
            <key>Event Hub Name</key>
            <value>
              <name>Event Hub Name</name>
            </value>
          </entry>
          <entry>
            <key>Event Hub Namespace</key>
            <value>
              <name>Event Hub Namespace</name>
            </value>
          </entry>
          <entry>
            <key>Shared Access Policy Name</key>
            <value>
              <name>Shared Access Policy Name</name>
            </value>
          </entry>
          <entry>
            <key>Shared Access Policy Primary Key</key>
            <value>
              <name>Shared Access Policy Primary Key</name>
            </value>
          </entry>
        </descriptors>
        <executionNode>ALL</executionNode>
        <lossTolerant>false</lossTolerant>
        <penaltyDuration>30 sec</penaltyDuration>
        <properties>
          <entry>
            <key>Event Hub Name</key>
            <value>fracjob</value>
          </entry>
          <entry>
            <key>Event Hub Namespace</key>
            <value>chaosMonkeys</value>
          </entry>
          <entry>
            <key>Shared Access Policy Name</key>
            <value>RootManageSharedAccessKey</value>
          </entry>
          <entry>
            <key>Shared Access Policy Primary Key</key>
          </entry>
        </properties>
        <runDurationMillis>0</runDurationMillis>
        <schedulingPeriod>0 sec</schedulingPeriod>
        <schedulingStrategy>TIMER_DRIVEN</schedulingStrategy>
        <yieldDuration>1 sec</yieldDuration>
      </config>
      <name>PutAzureEventHub</name>
      <relationships>
        <autoTerminate>true</autoTerminate>
        <name>failure</name>
      </relationships>
      <relationships>
        <autoTerminate>true</autoTerminate>
        <name>success</name>
      </relationships>
      <state>STOPPED</state>
      <style></style>
      <type>org.apache.nifi.processors.azure.eventhub.PutAzureEventHub</type>
    </processors>
    <processors>
      <id>a260548e-10c0-3397-0000-000000000000</id>
      <parentGroupId>f40bfddc-00b5-3970-0000-000000000000</parentGroupId>
      <position>
        <x>178.8377338495352</x>
        <y>1321.2924757829376</y>
      </position>
      <bundle>
        <artifact>nifi-standard-nar</artifact>
        <group>org.apache.nifi</group>
        <version>1.4.0</version>
      </bundle>
      <config>
        <bulletinLevel>WARN</bulletinLevel>
        <comments></comments>
        <concurrentlySchedulableTaskCount>1</concurrentlySchedulableTaskCount>
        <descriptors>
          <entry>
            <key>Destination</key>
            <value>
              <name>Destination</name>
            </value>
          </entry>
          <entry>
            <key>Return Type</key>
            <value>
              <name>Return Type</name>
            </value>
          </entry>
          <entry>
            <key>Path Not Found Behavior</key>
            <value>
              <name>Path Not Found Behavior</name>
            </value>
          </entry>
          <entry>
            <key>Null Value Representation</key>
            <value>
              <name>Null Value Representation</name>
            </value>
          </entry>
          <entry>
            <key>type</key>
            <value>
              <name>type</name>
            </value>
          </entry>
        </descriptors>
        <executionNode>ALL</executionNode>
        <lossTolerant>false</lossTolerant>
        <penaltyDuration>30 sec</penaltyDuration>
        <properties>
          <entry>
            <key>Destination</key>
            <value>flowfile-attribute</value>
          </entry>
          <entry>
            <key>Return Type</key>
            <value>json</value>
          </entry>
          <entry>
            <key>Path Not Found Behavior</key>
            <value>ignore</value>
          </entry>
          <entry>
            <key>Null Value Representation</key>
            <value>empty string</value>
          </entry>
          <entry>
            <key>type</key>
            <value>$.type</value>
          </entry>
        </properties>
        <runDurationMillis>0</runDurationMillis>